10
	Energy:       3.8974979
N         -0.14494       -0.03952        0.04685
C          1.31897       -0.02730        0.02308
C          1.91236        0.11014        1.40149
O          1.20177        0.19756        2.39111
H          1.68714       -0.97329       -0.43069
H          1.66937        0.82281       -0.60213
H         -0.48992       -0.84967        0.61170
H         -0.50091       -0.13643       -0.93151
O          3.25078        0.13700        1.54420
H         -0.50680        0.85595        0.44889
